Circuit: * C:\Users\jarne\Documents\GitHub\EN-device-backscatter\simulations\cmos-voltage-dependent-resistor.asc

.OP point found by inspection.

Date: Mon Mar 18 17:15:41 2024
Total elapsed time: 0.058 seconds.

tnom = 27
temp = 27
method = trap
totiter = 2010
traniter = 0
tranpoints = 0
accept = 0
rejected = 0
matrix size = 10
fillins = 2
solver = Normal
Avg thread counts: 1.6/0.0/2.3/1.6
Matrix Compiler1:      43 opcodes  0.4/[0.2]/0.2
Matrix Compiler2: 924 bytes object code size  0.2/0.1/[0.1]

